259587
  -OEChem-05082211533D

 31 32  0     1  0  0  0  0  0999 V2000
    3.0961    1.6555    2.1351 O   0  0  0  0  0  0  0  0  0  0  0  0
    2.5917    2.4050    0.0424 O   0  0  0  0  0  0  0  0  0  0  0  0
   -0.9557   -3.1373    0.7738 O   0  5  0  0  0  0  0  0  0  0  0  0
    1.0419   -2.3779    0.2536 O   0  0  0  0  0  0  0  0  0  0  0  0
   -4.6080    1.7557   -0.2404 O   0  5  0  0  0  0  0  0  0  0  0  0
   -4.8105   -0.3259    0.4407 O   0  0  0  0  0  0  0  0  0  0  0  0
    1.4534   -0.0575   -0.5296 N   0  0  3  0  0  0  0  0  0  0  0  0
   -0.1946   -2.2232    0.3811 N   0  3  0  0  0  0  0  0  0  0  0  0
   -4.1143    0.6376    0.0407 N   0  3  0  0  0  0  0  0  0  0  0  0
    2.4262    0.0506    0.5579 C   0  0  1  0  0  0  0  0  0  0  0  0
    3.6805   -0.6289    0.0042 C   0  0  0  0  0  0  0  0  0  0  0  0
    3.5799   -0.3959   -1.4959 C   0  0  0  0  0  0  0  0  0  0  0  0
    2.0833   -0.5081   -1.7712 C   0  0  0  0  0  0  0  0  0  0  0  0
    0.0879    0.0936   -0.3836 C   0  0  0  0  0  0  0  0  0  0  0  0
    2.7020    1.4932    0.8485 C   0  0  0  0  0  0  0  0  0  0  0  0
   -0.7586   -0.9553    0.0654 C   0  0  0  0  0  0  0  0  0  0  0  0
   -0.5384    1.3314   -0.6832 C   0  0  0  0  0  0  0  0  0  0  0  0
   -2.1349   -0.7772    0.2046 C   0  0  0  0  0  0  0  0  0  0  0  0
   -1.9149    1.5094   -0.5440 C   0  0  0  0  0  0  0  0  0  0  0  0
   -2.7131    0.4551   -0.1003 C   0  0  0  0  0  0  0  0  0  0  0  0
    2.0738   -0.4372    1.4738 H   0  0  0  0  0  0  0  0  0  0  0  0
    3.6519   -1.7050    0.2114 H   0  0  0  0  0  0  0  0  0  0  0  0
    4.6128   -0.2312    0.4175 H   0  0  0  0  0  0  0  0  0  0  0  0
    3.9352    0.6108   -1.7465 H   0  0  0  0  0  0  0  0  0  0  0  0
    4.1654   -1.1144   -2.0764 H   0  0  0  0  0  0  0  0  0  0  0  0
    1.7968    0.1227   -2.6195 H   0  0  0  0  0  0  0  0  0  0  0  0
    1.8086   -1.5424   -2.0035 H   0  0  0  0  0  0  0  0  0  0  0  0
    0.0630    2.1664   -1.0373 H   0  0  0  0  0  0  0  0  0  0  0  0
   -2.7613   -1.5963    0.5501 H   0  0  0  0  0  0  0  0  0  0  0  0
   -2.3302    2.4828   -0.7921 H   0  0  0  0  0  0  0  0  0  0  0  0
    3.2832    2.5953    2.3451 H   0  0  0  0  0  0  0  0  0  0  0  0
  1 15  1  0  0  0  0
  1 31  1  0  0  0  0
  2 15  2  0  0  0  0
  3  8  1  0  0  0  0
  4  8  2  0  0  0  0
  5  9  1  0  0  0  0
  6  9  2  0  0  0  0
  7 10  1  0  0  0  0
  7 13  1  0  0  0  0
  7 14  1  0  0  0  0
  8 16  1  0  0  0  0
  9 20  1  0  0  0  0
 10 11  1  0  0  0  0
 10 15  1  0  0  0  0
 10 21  1  0  0  0  0
 11 12  1  0  0  0  0
 11 22  1  0  0  0  0
 11 23  1  0  0  0  0
 12 13  1  0  0  0  0
 12 24  1  0  0  0  0
 12 25  1  0  0  0  0
 13 26  1  0  0  0  0
 13 27  1  0  0  0  0
 14 16  2  0  0  0  0
 14 17  1  0  0  0  0
 16 18  1  0  0  0  0
 17 19  2  0  0  0  0
 17 28  1  0  0  0  0
 18 20  2  0  0  0  0
 18 29  1  0  0  0  0
 19 20  1  0  0  0  0
 19 30  1  0  0  0  0
M  CHG  4   3  -1   5  -1   8   1   9   1
M  END
> <PUBCHEM_COMPOUND_CID>
259587

> <PUBCHEM_CONFORMER_RMSD>
0.8

> <PUBCHEM_CONFORMER_DIVERSEORDER>
1
4
3
2

> <PUBCHEM_MMFF94_PARTIAL_CHARGES>
22
1 -0.65
10 0.43
13 0.37
14 0.1
15 0.66
16 0.13
17 -0.15
18 -0.15
19 -0.15
2 -0.57
20 0.13
28 0.15
29 0.15
3 -0.52
30 0.15
31 0.5
4 -0.52
5 -0.52
6 -0.52
7 -0.84
8 0.91
9 0.91

> <PUBCHEM_EFFECTIVE_ROTOR_COUNT>
5

> <PUBCHEM_PHARMACOPHORE_FEATURES>
12
1 1 acceptor
1 2 acceptor
1 3 acceptor
1 3 anion
1 4 acceptor
1 5 acceptor
1 5 anion
1 6 acceptor
1 7 cation
3 1 2 15 anion
5 7 10 11 12 13 rings
6 14 16 17 18 19 20 rings

> <PUBCHEM_HEAVY_ATOM_COUNT>
20

> <PUBCHEM_ATOM_DEF_STEREO_COUNT>
0

> <PUBCHEM_ATOM_UDEF_STEREO_COUNT>
1

> <PUBCHEM_BOND_DEF_STEREO_COUNT>
0

> <PUBCHEM_BOND_UDEF_STEREO_COUNT>
0

> <PUBCHEM_ISOTOPIC_ATOM_COUNT>
0

> <PUBCHEM_COMPONENT_COUNT>
1

> <PUBCHEM_CACTVS_TAUTO_COUNT>
1

> <PUBCHEM_CONFORMER_ID>
0003F60300000001

> <PUBCHEM_MMFF94_ENERGY>
83.3277

> <PUBCHEM_FEATURE_SELFOVERLAP>
61.115

> <PUBCHEM_SHAPE_FINGERPRINT>
11132069 177 18335976549771929325
11543360 7 16773503448013884941
12236239 1 17022910038502702732
12403259 226 18335979749148012156
12403259 415 18409167697311816517
12633257 1 18191564523769350448
12670546 56 14634867544228268933
13140716 1 18335701710282444282
13538477 17 17386013922100401142
13583140 156 16154256351608603069
14115302 16 18260843578961938454
14178342 30 18116705425348115986
14787075 74 18057879346075898193
15219456 202 18202004386447872444
16945 1 18260823812910447326
18186145 218 18342458123409602221
20832881 197 18057050103354003990
21486144 27 18202279238332052044
21503847 285 17774452572569010825
21524375 3 18335987467278563615
21618674 25 17774430711079901080
23402539 116 18410853243935723574
23493267 7 17168446911802642091
23526113 38 18057909973303290926
23557571 272 18124321755162323930
23559900 14 18411987970707052686
2748010 2 18194975260024851894
3060560 45 17774720844758101694
3286 77 18270963432043298420
350125 39 18044377119299552654
4072396 5 17677035881429712041
465052 167 17023200331179192841
474 4 18272646887208867417
495365 180 17561078146490108192
4990 188 18130512937692544327
5337951 7 18344149194089588292
53812653 166 18410294675007140766
6333272 397 18409729599118968873
633830 44 18271803497829973677
69090 78 18060697299498276239
7097593 13 17898821743428436064
7364860 26 18050565145124346591
7808743 9 18117844515279067404
81228 2 17973440193940907955
9709674 26 18198344150572133958

> <PUBCHEM_SHAPE_MULTIPOLES>
361.43
7.37
2.41
1.23
5.69
0.95
0.01
-2.55
0.19
-0.09
0.73
-1.39
-0.22
1.24

> <PUBCHEM_SHAPE_SELFOVERLAP>
775.055

> <PUBCHEM_SHAPE_VOLUME>
200.4

> <PUBCHEM_COORDINATE_TYPE>
2
5
10

$$$$
